%chk=HF3-21G.chk
%mem=6MW
%nproc=1
# opt b3lyp/6-31g(d) geom=connectivity

Title Card Required

0 1
 C
 H                  1              B1
 H                  1              B2    2              A1
 C                  1              B3    3              A2    2              D1
 H                  4              B4    1              A3    3              D2
 H                  4              B5    1              A4    3              D3
 C                  4              B6    1              A5    3              D4
 H                  7              B7    4              A6    1              D5
 H                  7              B8    4              A7    1              D6
 O                  7              B9    4              A8    1              D7
 H                 10             B10    7              A9    4              D8
 C                  1             B11    4             A10    7              D9
 H                 12             B12    1             A11    4             D10
 H                 12             B13    1             A12    4             D11
 H                 12             B14    1             A13    4             D12

   B1             1.08651977
   B2             1.08651959
   B3             1.52798667
   B4             1.08578426
   B5             1.08578363
   B6             1.51836150
   B7             1.08935167
   B8             1.08935172
   B9             1.40397164
   B10            0.94655099
   B11            1.54000000
   B12            1.07000000
   B13            1.07000000
   B14            1.07000000
   A1           107.72352819
   A2           111.40631822
   A3           110.25617394
   A4           110.25622678
   A5           112.59269318
   A6           109.94249032
   A7           109.94274550
   A8           108.24678200
   A9           109.67179351
   A10          110.92829201
   A11          109.47120255
   A12          109.47120255
   A13          109.47123134
   D1          -122.46874118
   D2          -178.64569389
   D3           -61.02935337
   D4            60.16272117
   D5           -59.02589688
   D6            59.02080163
   D7           180.00000000
   D8           179.98235727
   D9          -180.00000000
   D10           59.89131309
   D11          179.89132789
   D12          -60.10867951

 1 2 1.0 3 1.0 4 1.0 12 1.0
 2
 3
 4 5 1.0 6 1.0 7 1.0
 5
 6
 7 8 1.0 9 1.0 10 1.0
 8
 9
 10 11 1.0
 11
 12 13 1.0 14 1.0 15 1.0
 13
 14
 15

