%nprocshared=20
%mem=20GB
# td PBE1PBE/6-311g(2d,p)

1

1 1
 C                  3.29759900   -1.25885800   -0.02728700
 C                  4.30146800   -2.22449000   -0.00366000
 C                  5.62455900   -1.79222500   -0.06696300
 C                  5.92560000   -0.42579400   -0.14892300
 C                  4.92037400    0.53819700   -0.17417000
 C                  3.58987800    0.10881700   -0.11825300
 N                  2.43348000    0.90485500   -0.14612200
 C                  1.25918500    0.21674400   -0.03941100
 S                  1.55746300   -1.51212700    0.05378100
 C                 -1.25922600    0.21676600    0.03923500
 S                 -1.55751700   -1.51209500   -0.05398200
 C                 -3.29763800   -1.25883600    0.02735100
 C                 -3.58991200    0.10884500    0.11829500
 N                 -2.43350900    0.90488400    0.14598300
 C                  2.51052000    2.37349800   -0.25727800
 C                  2.56705800    3.07382100    1.10141100
 C                 -2.51043500    2.37353900    0.25731800
 C                 -2.56680000    3.07396300   -1.10132100
 C                 -4.30151800   -2.22446100    0.00378400
 C                 -5.62460100   -1.79219000    0.06714700
 C                 -5.92563700   -0.42575700    0.14907400
 C                 -4.92040700    0.53823100    0.17423900
 C                 -0.00001900    0.82902000   -0.00006400
 H                  4.06044600   -3.28037700    0.06389700
 H                  6.42712800   -2.52225800   -0.04908700
 H                  6.96202100   -0.10664500   -0.19120900
 H                  5.17674900    1.59013500   -0.22795400
 H                  1.65751300    2.70853400   -0.85192200
 H                  3.39812300    2.59699000   -0.85257900
 H                  2.63485600    4.15638400    0.95408700
 H                  3.44196000    2.75211600    1.67423800
 H                  1.67461600    2.86345900    1.69922100
 H                 -1.65746900    2.70844000    0.85209800
 H                 -3.39809600    2.59704000    0.85251600
 H                 -2.63447300    4.15652700   -0.95393800
 H                 -3.44171600    2.75238900   -1.67420300
 H                 -1.67436100    2.86353700   -1.69911300
 H                 -4.06050900   -3.28035400   -0.06372600
 H                 -6.42716800   -2.52222800    0.04935700
 H                 -6.96205600   -0.10660400    0.19137800
 H                 -5.17677500    1.59017100    0.22801100
 H                  0.00000100    1.90912500   -0.00002800

