%nprocshared=20
%mem=20GB
# td PBE1PBE/6-311g(2d,p)

2

1 1
 C                 -4.28858000   -1.22641000    0.09999300
 C                 -5.19785900   -2.28049400    0.08390000
 C                 -6.55823200   -1.97434000    0.10669500
 C                 -6.98874700   -0.64206500    0.14217200
 C                 -6.07799300    0.41275400    0.15983300
 C                 -4.71274900    0.11034200    0.14418500
 N                 -3.63916500    1.01518600    0.17159100
 C                 -2.40358900    0.44325100    0.11169700
 S                 -2.52860900   -1.31369600    0.06969500
 C                  2.59489900    0.78696500    0.02597000
 S                  3.85946300    1.94413000    0.42076300
 C                  5.10685000    0.73073500    0.18780800
 C                  4.53003900   -0.49743600   -0.17072200
 N                  3.12828300   -0.42951000   -0.27526000
 C                 -3.85120300    2.47389100    0.22365500
 C                 -3.94664800    3.11118400   -1.16351200
 C                  2.35741500   -1.57827000   -0.78369400
 C                  1.96042800   -2.57228000    0.30945400
 C                  6.48657900    0.87591700    0.32033800
 C                  7.28915100   -0.23968300    0.09031100
 C                  6.71840400   -1.46994000   -0.26285600
 C                  5.33931000   -1.61584700   -0.39642200
 C                 -1.18932200    1.13753400    0.08087000
 C                  0.06554500    0.52542600    0.04735700
 C                  1.26276600    1.23719500    0.05299100
 H                 -4.85820400   -3.31072600    0.05319300
 H                 -7.28726800   -2.77800500    0.09377100
 H                 -8.05122800   -0.42103900    0.15371300
 H                 -6.43187100    1.43736500    0.17762300
 H                 -3.03833800    2.90713600    0.81023400
 H                 -4.76459700    2.63927800    0.79893300
 H                 -4.11681100    4.18772400   -1.06164700
 H                 -4.77611600    2.68667200   -1.73712000
 H                 -3.02471000    2.96212300   -1.73401900
 H                  2.98143900   -2.06381600   -1.53852000
 H                  1.48967000   -1.17891200   -1.31172700
 H                  1.39559700   -3.39862100   -0.13433000
 H                  1.34000000   -2.10474800    1.08059100
 H                  2.84312300   -2.99033500    0.80232400
 H                  6.92263100    1.83084500    0.59519500
 H                  8.36632300   -0.15286300    0.18898400
 H                  7.35853500   -2.32956100   -0.43348700
 H                  4.91664400   -2.57864100   -0.66025900
 H                 -1.22645300    2.22158600    0.07248000
 H                  0.09059200   -0.55975800    0.05237600
 H                  1.17474800    2.31704000    0.14991100

