%nprocshared=20
%mem=20GB
# td PBE1PBE/6-311g(2d,p)

3

1 1
 C                  5.59860100   -1.34109400   -0.00706100
 C                  6.47249200   -2.42243200   -0.01189200
 C                  7.84758000   -2.15922600   -0.01328600
 C                  8.31563400   -0.83729800   -0.01000100
 C                  7.43052200    0.24554300   -0.00508100
 C                  6.05178600   -0.01427100   -0.00337000
 N                  5.00866900    0.95333500    0.00169800
 C                  3.73597800    0.44065900    0.00062700
 S                  3.78435800   -1.39397500   -0.00484100
 C                 -3.75793200    0.70226100    0.00122000
 S                 -5.01517700    2.01165400   -0.00626700
 C                 -6.31251400    0.74986500   -0.00799700
 C                 -5.76546200   -0.54919700   -0.00266500
 N                 -4.33684500   -0.54551000    0.00433300
 C                  5.46385600    2.38444600    0.00682400
 C                  4.44273000    3.51883300    0.02309000
 C                 -3.40952100   -1.72042500    0.01685500
 C                 -3.97752600   -3.13793400    0.04325000
 C                 -7.68254200    0.99414400   -0.01461000
 C                 -8.55073200   -0.09937900   -0.01652000
 C                 -8.02994400   -1.40082000   -0.01220800
 C                 -6.65340000   -1.64013400   -0.00546800
 C                 -1.19273700    0.44854300    0.00178600
 C                 -2.42080100    1.12328900    0.00307900
 C                  2.50826300    1.10397600    0.00267600
 C                  1.26506900    0.46136700    0.00130200
 C                  0.03544900    1.12251800    0.00336800
 H                  6.10136700   -3.44036100   -0.01461400
 H                  8.55070900   -2.98385600   -0.01707500
 H                  9.38229400   -0.64491100   -0.01137300
 H                  7.81998600    1.25452100   -0.00300400
 H                  6.09754700    2.49357500   -0.88070400
 H                  6.11076500    2.48177400    0.88605900
 H                  5.01177300    4.45481900    0.03005800
 H                  3.81970600    3.51533300    0.92065500
 H                  3.81153800    3.53393200   -0.86858600
 H                 -2.77198800   -1.58756300    0.89792600
 H                 -2.77925500   -1.61551300   -0.87331300
 H                 -3.12019500   -3.81979700    0.06035000
 H                 -4.56047600   -3.37734200   -0.84858000
 H                 -4.56764900   -3.34071600    0.93951200
 H                 -8.06297100    2.00876200   -0.01846200
 H                 -9.62236700    0.06087200   -0.02173200
 H                 -8.70448000   -2.24941700   -0.01433500
 H                 -6.31050900   -2.65889700   -0.00305900
 H                 -1.14382900   -0.63363100   -0.00170100
 H                 -2.33063900    2.20710100    0.00399500
 H                  2.50125400    2.18162100    0.00524800
 H                  1.23923900   -0.62835600   -0.00161200
 H                  0.02941600    2.21102000    0.00635600

