%nprocshared=20
%mem=20GB
# td PBE1PBE/6-311g(2d,p)

5

0 1
 C                -11.73434700   -1.46327000    0.19782300
 C                -13.19338000   -1.96497800    0.35752800
 C                -14.15030500   -1.36625100   -0.66697500
 C                -14.19787900    0.14599100   -0.47049900
 C                -12.83980900    0.78115100   -0.26647300
 C                -11.69920000    0.06913500   -0.02073500
 C                -12.87854800    2.29367200   -0.39978100
 C                -11.01460000   -1.85388900    1.51303800
 C                -11.08780400   -2.20930000   -0.99651900
 C                -10.43465000    0.80865600    0.02799400
 C                 -9.14771200    0.36847600    0.05174800
 C                 -7.97099400    1.21878800    0.06420800
 C                 -6.73849400    0.61873200    0.07015100
 C                 -5.44585300    1.23795600    0.07871100
 C                 -4.28034500    0.52589800    0.08157300
 C                 -2.94261500    1.06355900    0.08665000
 C                 -1.88553700    0.18496200    0.08738000
 C                 -0.48837100    0.47978700    0.08905300
 C                  0.48834700   -0.47996900    0.08880100
 C                  1.88551100   -0.18513600    0.08747500
 C                  2.94260000   -1.06372000    0.08625200
 C                  4.28031700   -0.52603700    0.08157900
 C                  5.44584000   -1.23806500    0.07808900
 C                  6.73846300   -0.61880300    0.07000000
 C                  7.97098400   -1.21881400    0.06357500
 C                  9.14766300   -0.36843600    0.05184900
 C                 10.43462400   -0.80854900    0.02775900
 C                 -8.15655300    2.71715000    0.06915600
 C                 -2.76950800    2.56416600    0.08978300
 C                  2.76951700   -2.56432700    0.08844000
 C                  8.15658300   -2.71717900    0.06726200
 C                 11.69920100   -0.06905900   -0.02040300
 C                 11.73417400    1.46348600    0.19724100
 C                 13.19312900    1.96558300    0.35651000
 C                 14.15018800    1.36601900   -0.66737400
 C                 14.19804200   -0.14598000   -0.46921100
 C                 12.84001000   -0.78117200   -0.26499100
 C                 12.87925700   -2.29376800   -0.39697100
 C                 11.01454900    1.85474000    1.51234800
 C                 11.08739100    2.20872500   -0.99746400
 H                -13.55232100   -1.70395600    1.36368500
 H                -13.19204700   -3.06140400    0.30324800
 H                -15.15326400   -1.79810500   -0.56312600
 H                -13.81314000   -1.59798100   -1.68525800
 H                -14.83672400    0.39299300    0.39493900
 H                -14.68503700    0.63122300   -1.32930600
 H                -12.32557200    2.80964300    0.39226100
 H                -12.46648200    2.63312000   -1.36019300
 H                -13.91342500    2.64910900   -0.35352400
 H                -11.41655600   -1.28070300    2.35628800
 H                -11.18386700   -2.91818400    1.71975300
 H                 -9.93617600   -1.69079100    1.48832400
 H                -10.06240900   -1.88524200   -1.18784900
 H                -11.06766600   -3.28884200   -0.80047400
 H                -11.65326400   -2.04544500   -1.92008500
 H                -10.55322000    1.88629200    0.00054100
 H                 -8.93161100   -0.69443900    0.04755400
 H                 -6.72721300   -0.47233400    0.06643300
 H                 -5.39417500    2.32326500    0.08144400
 H                 -4.35408800   -0.56248200    0.07848100
 H                 -2.13645200   -0.87680400    0.08542800
 H                 -0.17247500    1.52161300    0.08953600
 H                  0.17245100   -1.52179600    0.08856800
 H                  2.13641600    0.87663400    0.08623200
 H                  4.35404400    0.56234800    0.07936400
 H                  5.39419200   -2.32337900    0.07990900
 H                  6.72715400    0.47226600    0.06713700
 H                  8.93148300    0.69446000    0.04855700
 H                 10.55317600   -1.88615400   -0.00070300
 H                 -8.74339500    3.03625700    0.93992100
 H                 -7.20910800    3.25789500    0.09304900
 H                 -8.70491100    3.04738200   -0.82252000
 H                 -3.24193200    3.01389000   -0.79279800
 H                 -3.24849600    3.01086200    0.97035100
 H                 -1.72147400    2.86793600    0.09430600
 H                  1.72148600   -2.86812000    0.09284000
 H                  3.24189100   -3.01351100   -0.79444200
 H                  3.24856500   -3.01155000    0.96870600
 H                  7.20915900   -3.25796600    0.09100800
 H                  8.70468700   -3.04667900   -0.82484100
 H                  8.74368100   -3.03697800    0.93759900
 H                 13.19160100    3.06195700    0.30121200
 H                 13.55209600    1.70556300    1.36291500
 H                 15.15305400    1.79819900   -0.56397400
 H                 13.81297800    1.59657500   -1.68591200
 H                 14.83665800   -0.39187500    0.39670600
 H                 14.68556100   -0.63210100   -1.32731700
 H                 12.32355800   -2.80930100    0.39339800
 H                 12.47074300   -2.63388800   -1.35869000
 H                 13.91403200   -2.64902300   -0.34683800
 H                 11.41666700    1.28202800    2.35584100
 H                 11.18377000    2.91915800    1.71847300
 H                  9.93613200    1.69157400    1.48788800
 H                 10.06213800    1.88418000   -1.18870700
 H                 11.06684900    3.28834800   -0.80191400
 H                 11.65298300    2.04466700   -1.92091500

