%nprocshared=20
%mem=20GB
# td PBE1PBE/6-311g(2d,p)

6

0 1
 C                  1.75078000   -0.60563200   -0.00000100
 C                  2.92359900    0.06915500   -0.00000100
 C                  4.23549000   -0.67327300    0.00000000
 C                  3.04976200    1.57087800    0.00000000
 C                  0.40929700   -0.06062600   -0.00000100
 C                 -0.70040800   -0.83629200    0.00000100
 C                 -2.11139400   -0.42180000    0.00000000
 C                 -3.13398100   -1.54958100    0.00000000
 C                 -2.49736700    0.87233100    0.00000100
 C                 -3.90551700    1.38913400    0.00000000
 H                  1.80384400   -1.69554400    0.00000000
 H                  4.09259100   -1.75841600    0.00000800
 H                  4.84113800   -0.40996300   -0.87958300
 H                  4.84114200   -0.40995200    0.87957700
 H                  2.08834900    2.08910800   -0.00003100
 H                  3.61428900    1.91213400    0.87950100
 H                  3.61434600    1.91213000   -0.87946500
 H                  0.30383100    1.02198400   -0.00000300
 H                 -0.54153500   -1.91536800    0.00000300
 H                 -2.64439600   -2.52805800    0.00000300
 H                 -3.78430500   -1.51194000    0.88224400
 H                 -3.78430000   -1.51194400   -0.88224800
 H                 -1.72841800    1.64403500    0.00000100
 H                 -4.65199500    0.59058200   -0.00000200
 H                 -4.09307100    2.02272200    0.87901900
 H                 -4.09306900    2.02272400   -0.87901800

