%chk=azulene_B3LYP6-31Gd.chk
%mem=6MW
%nproc=1
# opt freq b3lyp/6-31g(d) geom=connectivity

Title Card Required

0 1
 C
 C                  1              B1
 C                  2              B2    1              A1
 C                  1              B3    2              A2    3              D1
 C                  3              B4    2              A3    1              D2
 C                  4              B5    1              A4    2              D3
 C                  6              B6    4              A5    1              D4
 H                  1              B7    2              A6    3              D5
 H                  2              B8    1              A7    4              D6
 H                  3              B9    2              A8    1              D7
 H                  4             B10    1              A9    2              D8
 H                  6             B11    4             A10    1              D9
 C                  5             B12    3             A11    2             D10
 H                 13             B13    5             A12    3             D11
 C                 13             B14    5             A13    3             D12
 H                 15             B15   13             A14    5             D13
 C                  7             B16    6             A15    4             D14
 H                 17             B17    7             A16    6             D15

   B1             1.36073000
   B2             1.41577819
   B3             1.41577140
   B4             1.35654629
   B5             1.35989528
   B6             1.41120807
   B7             1.10996147
   B8             1.10833174
   B9             1.10946837
   B10            1.10851578
   B11            1.10971612
   B12            1.45754203
   B13            1.08768471
   B14            1.38071109
   B15            1.08923226
   B16            1.39184463
   B17            1.08774206
   A1           128.88276891
   A2           129.72366285
   A3           128.02273679
   A4           129.21844159
   A5           128.52037828
   A6           116.23587658
   A7           116.70124363
   A8           115.04326918
   A9           114.25182498
   A10          117.07024340
   A11          125.10582137
   A12          123.70074460
   A13          108.69689520
   A14          126.85249416
   A15          125.91231195
   A16          126.55774504
   D1            -0.04235673
   D2             0.01447619
   D3             0.00536525
   D4             0.03554595
   D5           179.96667964
   D6           179.97720207
   D7          -179.97645844
   D8          -179.98188135
   D9          -179.97955427
   D10         -179.98465932
   D11            0.03085987
   D12         -179.97549966
   D13          180.00000000
   D14          179.97423373
   D15            0.01709062

 1 2 2.0 4 1.5 8 1.0
 2 3 1.5 9 1.0
 3 5 2.0 10 1.0
 4 6 2.0 11 1.0
 5 7 1.0 13 1.0
 6 7 1.5 12 1.0
 7 17 1.5
 8
 9
 10
 11
 12
 13 14 1.0 15 2.0
 14
 15 16 1.0 17 1.5
 16
 17 18 1.0
 18

