%chk=acetic_acid.chk
%mem=6MW
%nproc=1
# opt freq b3lyp/6-31g(d) geom=connectivity

Title Card Required

0 1
 C
 C                  1              B1
 H                  2              B2    1              A1
 H                  2              B3    1              A2    3              D1
 H                  2              B4    1              A3    3              D2
 O                  1              B5    2              A4    5              D3
 O                  1              B6    6              A5    2              D4
 H                  7              B7    1              A6    6              D5

   B1             1.54000000
   B2             1.07000000
   B3             1.07000000
   B4             1.07000000
   B5             1.25840000
   B6             1.43000000
   B7             0.96000000
   A1           109.47120255
   A2           109.47120255
   A3           109.47123134
   A4           119.88652694
   A5           120.22694612
   A6           109.50000006
   D1           120.00001480
   D2          -119.99999260
   D3            59.99990000
   D4           180.00000000
   D5            84.46260000

 1 2 1.0 6 2.0 7 1.0
 2 3 1.0 4 1.0 5 1.0
 3
 4
 5
 6
 7 8 1.0
 8

