%chk=ethanal.chk
%mem=6MW
%nproc=1
# opt freq b3lyp/6-31g(d) geom=connectivity

Title Card Required

0 1
 C
 O                  1              B1
 H                  1              B2    2              A1
 C                  1              B3    2              A2    3              D1
 H                  4              B4    1              A3    2              D2
 H                  4              B5    1              A4    2              D3
 H                  4              B6    1              A5    2              D4

   B1             1.25840000
   B2             1.07000000
   B3             1.54000000
   B4             1.07000000
   B5             1.07000000
   B6             1.07000000
   A1           119.88652694
   A2           120.22694612
   A3           109.47120255
   A4           109.47120255
   A5           109.47123134
   D1           180.00000000
   D2           180.00000000
   D3           -60.00009260
   D4            59.99990000

 1 2 2.0 3 1.0 4 1.0
 2
 3
 4 5 1.0 6 1.0 7 1.0
 5
 6
 7

